Circuit: * C:\workspace\git_TBSEQ\testLTSpice\Draft4.asc

Limiting rise time of source v2 to 0.001
Limiting fall time of source v2 to 0.001
Limiting rise time of source v1 to 0.002
Limiting fall time of source v1 to 0.002
WARNING: Less than two connections to node D-FF_^Q.  This node is used by A1.
Direct Newton iteration for .op point succeeded.

Date: Tue Aug 13 11:12:08 2024
Total elapsed time: 0.021 seconds.

tnom = 27
temp = 27
method = modified trap
totiter = 2185
traniter = 2182
tranpoints = 1092
accept = 1081
rejected = 11
matrix size = 5
fillins = 0
solver = Normal
Matrix Compiler1:       6 opcodes  0.0/[0.0]/0.0
Matrix Compiler2: off  [0.0]/0.0/0.3

