Circuit: * C:\workspace\git_TBSEQ\testLTSpice\Draft2.asc

Limiting rise time of source v1 to 0.003
Limiting fall time of source v1 to 0.003
Direct Newton iteration for .op point succeeded.

Date: Tue Aug 13 09:37:22 2024
Total elapsed time: 0.075 seconds.

tnom = 27
temp = 27
method = modified trap
totiter = 3048
traniter = 3042
tranpoints = 1351
accept = 1297
rejected = 54
matrix size = 11
fillins = 0
solver = Normal
Matrix Compiler1: 566 bytes object code size  0.2/0.1/[0.1]
Matrix Compiler2: off  [0.1]/0.1/0.1

