Circuit: * C:\workspace\git_TBSEQ\testLTSpice\Draft5.asc

WARNING: Specified period is not longer than the sum of Trise, Tfall, and Ton for v2.  Increasing period to 0.02
Limiting rise time of source v2 to 4.16334e-018
Limiting fall time of source v2 to 4.16334e-018
Direct Newton iteration for .op point succeeded.

Date: Tue Aug 13 12:05:45 2024
Total elapsed time: 0.059 seconds.

tnom = 27
temp = 27
method = modified trap
totiter = 2935
traniter = 2915
tranpoints = 1326
accept = 1246
rejected = 80
matrix size = 36
fillins = 12
solver = Normal
Matrix Compiler1: 3.96 KB object code size  1.2/0.6/[0.3]
Matrix Compiler2: 3.93 KB object code size  0.4/0.5/[0.3]

