Circuit: * C:\workspace\git_TBSEQ\testLTSpice\Slide_1.asc

Limiting rise time of source v3 to 0.005
Limiting fall time of source v3 to 0.005
Limiting rise time of source v2 to 0.02
Limiting fall time of source v2 to 0.02
WARNING: Less than two connections to node 5.333V.  This node is used by V4.
Direct Newton iteration for .op point succeeded.

Date: Tue Aug 13 14:31:41 2024
Total elapsed time: 0.194 seconds.

tnom = 27
temp = 27
method = modified trap
totiter = 4276
traniter = 4246
tranpoints = 1904
accept = 1693
rejected = 211
matrix size = 73
fillins = 68
solver = Normal
Thread vector: 14.8/8.3[2] 3.8/3.3[2] 1.2/3.0[1] 0.5/1.4[1]  2592/500
Matrix Compiler1: 11.16 KB object code size  2.4/1.1/[0.7]
Matrix Compiler2: off  [0.8]/1.0/1.4

