Circuit: * C:\workspace\git_TBSEQ\testLTSpice\testCD4066.asc

Limiting rise time of source v2 to 0.001
Limiting fall time of source v2 to 0.001
Direct Newton iteration for .op point succeeded.

Date: Tue Aug 13 12:10:17 2024
Total elapsed time: 0.128 seconds.

tnom = 27
temp = 27
method = modified trap
totiter = 6725
traniter = 6705
tranpoints = 2724
accept = 2191
rejected = 533
matrix size = 36
fillins = 12
solver = Normal
Matrix Compiler1: 3.96 KB object code size  1.0/0.6/[0.3]
Matrix Compiler2: 3.93 KB object code size  0.4/0.6/[0.3]

