LTspice 24.0.12 for Windows
Circuit: * C:\workspace\git_TBSEQ\TBSEQ_Board_V1\VCA_Output.asc
Start Time: Sat Sep 21 11:05:06 2024
solver = Normal
Maximum thread count: 4
tnom = 27
temp = 27
method = modified trap
Direct Newton iteration for .op point succeeded.
Total elapsed time: 0.044 seconds.

